/*--------------------------------*- C++ -*----------------------------------*\
| =========                 |                                                 |
| \\      /  F ield         | OpenFOAM: The Open Source CFD Toolbox           |
|  \\    /   O peration     | Version:  2206                                  |
|   \\  /    A nd           | Website:  www.openfoam.com                      |
|    \\/     M anipulation  |                                                 |
\*---------------------------------------------------------------------------*/
FoamFile
{
    version     2.0;
    format      ascii;
    arch        "LSB;label=32;scalar=64";
    class       polyBoundaryMesh;
    location    "constant/polyMesh";
    object      boundary;
}
// * * * * * * * * * * * * * * * * * * * * * * * * * * * * * * * * * * * * * //

12
(
    inlet
    {
        type            patch;
        nFaces          0;
        startFace       3552;
    }
    outlet
    {
        type            patch;
        nFaces          0;
        startFace       3552;
    }
    topWall
    {
        type            wall;
        inGroups        1(wall);
        nFaces          130;
        startFace       3552;
    }
    lowerWall
    {
        type            wall;
        inGroups        1(wall);
        nFaces          0;
        startFace       3682;
    }
    leadingEdge
    {
        type            wall;
        inGroups        1(wall);
        nFaces          0;
        startFace       3682;
    }
    trailingEdge
    {
        type            wall;
        inGroups        1(wall);
        nFaces          6;
        startFace       3682;
    }
    upperSurface
    {
        type            wall;
        inGroups        1(wall);
        nFaces          19;
        startFace       3688;
    }
    lowerSurface
    {
        type            wall;
        inGroups        1(wall);
        nFaces          0;
        startFace       3707;
    }
    frontAndBack
    {
        type            empty;
        inGroups        1(empty);
        nFaces          3698;
        startFace       3707;
    }
    procBoundary5to1
    {
        type            processor;
        inGroups        1(processor);
        nFaces          111;
        startFace       7405;
        matchTolerance  0.0001;
        transform       unknown;
        myProcNo        5;
        neighbProcNo    1;
    }
    procBoundary5to4
    {
        type            processor;
        inGroups        1(processor);
        nFaces          11;
        startFace       7516;
        matchTolerance  0.0001;
        transform       unknown;
        myProcNo        5;
        neighbProcNo    4;
    }
    procBoundary5to6
    {
        type            processor;
        inGroups        1(processor);
        nFaces          15;
        startFace       7527;
        matchTolerance  0.0001;
        transform       unknown;
        myProcNo        5;
        neighbProcNo    6;
    }
)

// ************************************************************************* //
