/*--------------------------------*- C++ -*----------------------------------*\
| =========                 |                                                 |
| \\      /  F ield         | OpenFOAM: The Open Source CFD Toolbox           |
|  \\    /   O peration     | Version:  2206                                  |
|   \\  /    A nd           | Website:  www.openfoam.com                      |
|    \\/     M anipulation  |                                                 |
\*---------------------------------------------------------------------------*/
FoamFile
{
    version     2.0;
    format      ascii;
    arch        "LSB;label=32;scalar=64";
    class       polyBoundaryMesh;
    location    "constant/polyMesh";
    object      boundary;
}
// * * * * * * * * * * * * * * * * * * * * * * * * * * * * * * * * * * * * * //

11
(
    inlet
    {
        type            patch;
        nFaces          50;
        startFace       32860;
    }
    outlet
    {
        type            patch;
        nFaces          0;
        startFace       32910;
    }
    topWall
    {
        type            wall;
        inGroups        1(wall);
        nFaces          335;
        startFace       32910;
    }
    lowerWall
    {
        type            wall;
        inGroups        1(wall);
        nFaces          0;
        startFace       33245;
    }
    leadingEdge
    {
        type            wall;
        inGroups        1(wall);
        nFaces          5;
        startFace       33245;
    }
    trailingEdge
    {
        type            wall;
        inGroups        1(wall);
        nFaces          5;
        startFace       33250;
    }
    upperSurface
    {
        type            wall;
        inGroups        1(wall);
        nFaces          25;
        startFace       33255;
    }
    lowerSurface
    {
        type            wall;
        inGroups        1(wall);
        nFaces          0;
        startFace       33280;
    }
    frontAndBack
    {
        type            empty;
        inGroups        1(empty);
        nFaces          33250;
        startFace       33280;
    }
    procBoundary3to0
    {
        type            processor;
        inGroups        1(processor);
        nFaces          310;
        startFace       66530;
        matchTolerance  0.0001;
        transform       unknown;
        myProcNo        3;
        neighbProcNo    0;
    }
    procBoundary3to4
    {
        type            processor;
        inGroups        1(processor);
        nFaces          50;
        startFace       66840;
        matchTolerance  0.0001;
        transform       unknown;
        myProcNo        3;
        neighbProcNo    4;
    }
)

// ************************************************************************* //
