/*--------------------------------*- C++ -*----------------------------------*\
| =========                 |                                                 |
| \\      /  F ield         | OpenFOAM: The Open Source CFD Toolbox           |
|  \\    /   O peration     | Version:  2206                                  |
|   \\  /    A nd           | Website:  www.openfoam.com                      |
|    \\/     M anipulation  |                                                 |
\*---------------------------------------------------------------------------*/
FoamFile
{
    version     2.0;
    format      ascii;
    arch        "LSB;label=32;scalar=64";
    class       polyBoundaryMesh;
    location    "constant/polyMesh";
    object      boundary;
}
// * * * * * * * * * * * * * * * * * * * * * * * * * * * * * * * * * * * * * //

12
(
    inlet
    {
        type            patch;
        nFaces          0;
        startFace       3528;
    }
    outlet
    {
        type            patch;
        nFaces          0;
        startFace       3528;
    }
    topWall
    {
        type            wall;
        inGroups        1(wall);
        nFaces          133;
        startFace       3528;
    }
    lowerWall
    {
        type            wall;
        inGroups        1(wall);
        nFaces          0;
        startFace       3661;
    }
    leadingEdge
    {
        type            wall;
        inGroups        1(wall);
        nFaces          0;
        startFace       3661;
    }
    trailingEdge
    {
        type            wall;
        inGroups        1(wall);
        nFaces          6;
        startFace       3661;
    }
    upperSurface
    {
        type            wall;
        inGroups        1(wall);
        nFaces          31;
        startFace       3667;
    }
    lowerSurface
    {
        type            wall;
        inGroups        1(wall);
        nFaces          0;
        startFace       3698;
    }
    frontAndBack
    {
        type            empty;
        inGroups        1(empty);
        nFaces          3678;
        startFace       3698;
    }
    procBoundary5to1
    {
        type            processor;
        inGroups        1(processor);
        nFaces          103;
        startFace       7376;
        matchTolerance  0.0001;
        transform       unknown;
        myProcNo        5;
        neighbProcNo    1;
    }
    procBoundary5to4
    {
        type            processor;
        inGroups        1(processor);
        nFaces          11;
        startFace       7479;
        matchTolerance  0.0001;
        transform       unknown;
        myProcNo        5;
        neighbProcNo    4;
    }
    procBoundary5to6
    {
        type            processor;
        inGroups        1(processor);
        nFaces          16;
        startFace       7490;
        matchTolerance  0.0001;
        transform       unknown;
        myProcNo        5;
        neighbProcNo    6;
    }
)

// ************************************************************************* //
