/*--------------------------------*- C++ -*----------------------------------*\
| =========                 |                                                 |
| \\      /  F ield         | OpenFOAM: The Open Source CFD Toolbox           |
|  \\    /   O peration     | Version:  2206                                  |
|   \\  /    A nd           | Website:  www.openfoam.com                      |
|    \\/     M anipulation  |                                                 |
\*---------------------------------------------------------------------------*/
FoamFile
{
    version     2.0;
    format      ascii;
    arch        "LSB;label=32;scalar=64";
    class       polyBoundaryMesh;
    location    "constant/polyMesh";
    object      boundary;
}
// * * * * * * * * * * * * * * * * * * * * * * * * * * * * * * * * * * * * * //

9
(
    inlet
    {
        type            patch;
        nFaces          50;
        startFace       48678;
    }
    outlet
    {
        type            patch;
        nFaces          50;
        startFace       48728;
    }
    topWall
    {
        type            wall;
        inGroups        1(wall);
        nFaces          501;
        startFace       48778;
    }
    lowerWall
    {
        type            wall;
        inGroups        1(wall);
        nFaces          501;
        startFace       49279;
    }
    leadingEdge
    {
        type            wall;
        inGroups        1(wall);
        nFaces          10;
        startFace       49780;
    }
    trailingEdge
    {
        type            wall;
        inGroups        1(wall);
        nFaces          10;
        startFace       49790;
    }
    upperSurface
    {
        type            wall;
        inGroups        1(wall);
        nFaces          41;
        startFace       49800;
    }
    lowerSurface
    {
        type            wall;
        inGroups        1(wall);
        nFaces          41;
        startFace       49841;
    }
    frontAndBack
    {
        type            empty;
        inGroups        1(empty);
        nFaces          49280;
        startFace       49882;
    }
)

// ************************************************************************* //
