/*--------------------------------*- C++ -*----------------------------------*\
| =========                 |                                                 |
| \\      /  F ield         | OpenFOAM: The Open Source CFD Toolbox           |
|  \\    /   O peration     | Version:  2206                                  |
|   \\  /    A nd           | Website:  www.openfoam.com                      |
|    \\/     M anipulation  |                                                 |
\*---------------------------------------------------------------------------*/
FoamFile
{
    version     2.0;
    format      ascii;
    arch        "LSB;label=32;scalar=64";
    class       polyBoundaryMesh;
    location    "constant/polyMesh";
    object      boundary;
}
// * * * * * * * * * * * * * * * * * * * * * * * * * * * * * * * * * * * * * //

11
(
    inlet
    {
        type            patch;
        nFaces          26;
        startFace       6021;
    }
    outlet
    {
        type            patch;
        nFaces          0;
        startFace       6047;
    }
    topWall
    {
        type            wall;
        inGroups        1(wall);
        nFaces          129;
        startFace       6047;
    }
    lowerWall
    {
        type            wall;
        inGroups        1(wall);
        nFaces          0;
        startFace       6176;
    }
    leadingEdge
    {
        type            wall;
        inGroups        1(wall);
        nFaces          5;
        startFace       6176;
    }
    trailingEdge
    {
        type            wall;
        inGroups        1(wall);
        nFaces          0;
        startFace       6181;
    }
    upperSurface
    {
        type            wall;
        inGroups        1(wall);
        nFaces          29;
        startFace       6181;
    }
    lowerSurface
    {
        type            wall;
        inGroups        1(wall);
        nFaces          0;
        startFace       6210;
    }
    frontAndBack
    {
        type            empty;
        inGroups        1(empty);
        nFaces          6176;
        startFace       6210;
    }
    procBoundary4to0
    {
        type            processor;
        inGroups        1(processor);
        nFaces          101;
        startFace       12386;
        matchTolerance  0.0001;
        transform       unknown;
        myProcNo        4;
        neighbProcNo    0;
    }
    procBoundary4to5
    {
        type            processor;
        inGroups        1(processor);
        nFaces          20;
        startFace       12487;
        matchTolerance  0.0001;
        transform       unknown;
        myProcNo        4;
        neighbProcNo    5;
    }
)

// ************************************************************************* //
