/*--------------------------------*- C++ -*----------------------------------*\
| =========                 |                                                 |
| \\      /  F ield         | OpenFOAM: The Open Source CFD Toolbox           |
|  \\    /   O peration     | Version:  v2206                                 |
|   \\  /    A nd           | Website:  www.openfoam.com                      |
|    \\/     M anipulation  |                                                 |
\*---------------------------------------------------------------------------*/
FoamFile
{
    version     2.0;
    format      ascii;
    class       dictionary;
    object      controlDict;
}
// * * * * * * * * * * * * * * * * * * * * * * * * * * * * * * * * * * * * * //

application     icoFoam;

startFrom       latestTime;

startTime       0;

stopAt          endTime;

endTime         30;

deltaT          0.0004;

writeControl    adjustableRunTime;

writeInterval   0.017; 

purgeWrite      1000;

writeFormat     ascii;

writePrecision  6;

writeCompression off;

timeFormat      general;

timePrecision   6;

runTimeModifiable true;

adjustTimeStep  yes;

maxCo           0.8;

maxDi           0.7;

libs            ( "libOpenFOAM.so" "libfieldFunctionObjects.so" );

functions
{
    #includeFunc solverInfo;
    cuttingPlane
    {
        type            surfaces;
        libs            ( "libsampling.so" );
        writeControl    runTime;
        writeInterval   1e-4;
        surfaceFormat   vtk;
        fields          (U p);
        interpolationScheme cellPoint;
        surfaces        
	( 	
		zNormal 
		{ 
			type cuttingPlane ; 
			planeType pointAndNormal ; 
			pointAndNormalDict 
			{ 
				point ( 0 0 0 ) ; 
				normal ( 0 0 1 ) ; 
			} 
		interpolate true ; 
		}
	);
    }
}

OptimisationSwitches
{
	fileHandler collated;
}

// ************************************************************************* //
