/*--------------------------------*- C++ -*----------------------------------*\
| =========                 |                                                 |
| \\      /  F ield         | OpenFOAM: The Open Source CFD Toolbox           |
|  \\    /   O peration     | Version:  2206                                  |
|   \\  /    A nd           | Website:  www.openfoam.com                      |
|    \\/     M anipulation  |                                                 |
\*---------------------------------------------------------------------------*/
FoamFile
{
    version     2.0;
    format      ascii;
    arch        "LSB;label=32;scalar=64";
    class       polyBoundaryMesh;
    location    "constant/polyMesh";
    object      boundary;
}
// * * * * * * * * * * * * * * * * * * * * * * * * * * * * * * * * * * * * * //

9
(
    inlet
    {
        type            patch;
        nFaces          70;
        startFace       77185;
    }
    outlet
    {
        type            patch;
        nFaces          70;
        startFace       77255;
    }
    topWall
    {
        type            wall;
        inGroups        1(wall);
        nFaces          561;
        startFace       77325;
    }
    lowerWall
    {
        type            wall;
        inGroups        1(wall);
        nFaces          561;
        startFace       77886;
    }
    leadingEdge
    {
        type            wall;
        inGroups        1(wall);
        nFaces          10;
        startFace       78447;
    }
    trailingEdge
    {
        type            wall;
        inGroups        1(wall);
        nFaces          10;
        startFace       78457;
    }
    upperSurface
    {
        type            wall;
        inGroups        1(wall);
        nFaces          34;
        startFace       78467;
    }
    lowerSurface
    {
        type            wall;
        inGroups        1(wall);
        nFaces          34;
        startFace       78501;
    }
    frontAndBack
    {
        type            empty;
        inGroups        1(empty);
        nFaces          77860;
        startFace       78535;
    }
)

// ************************************************************************* //
