/*--------------------------------*- C++ -*----------------------------------*\
| =========                 |                                                 |
| \\      /  F ield         | OpenFOAM: The Open Source CFD Toolbox           |
|  \\    /   O peration     | Version:  2206                                  |
|   \\  /    A nd           | Website:  www.openfoam.com                      |
|    \\/     M anipulation  |                                                 |
\*---------------------------------------------------------------------------*/
FoamFile
{
    version     2.0;
    format      ascii;
    arch        "LSB;label=32;scalar=64";
    class       polyBoundaryMesh;
    location    "constant/polyMesh";
    object      boundary;
}
// * * * * * * * * * * * * * * * * * * * * * * * * * * * * * * * * * * * * * //

12
(
    inlet
    {
        type            patch;
        nFaces          34;
        startFace       24545;
    }
    outlet
    {
        type            patch;
        nFaces          0;
        startFace       24579;
    }
    topWall
    {
        type            wall;
        inGroups        1(wall);
        nFaces          0;
        startFace       24579;
    }
    lowerWall
    {
        type            wall;
        inGroups        1(wall);
        nFaces          424;
        startFace       24579;
    }
    leadingEdge
    {
        type            wall;
        inGroups        1(wall);
        nFaces          12;
        startFace       25003;
    }
    trailingEdge
    {
        type            wall;
        inGroups        1(wall);
        nFaces          12;
        startFace       25015;
    }
    upperSurface
    {
        type            wall;
        inGroups        1(wall);
        nFaces          0;
        startFace       25027;
    }
    lowerSurface
    {
        type            wall;
        inGroups        1(wall);
        nFaces          184;
        startFace       25027;
    }
    frontAndBack
    {
        type            empty;
        inGroups        1(empty);
        nFaces          25016;
        startFace       25211;
    }
    procBoundary0to1
    {
        type            processor;
        inGroups        1(processor);
        nFaces          34;
        startFace       50227;
        matchTolerance  0.0001;
        transform       unknown;
        myProcNo        0;
        neighbProcNo    1;
    }
    procBoundary0to3
    {
        type            processor;
        inGroups        1(processor);
        nFaces          241;
        startFace       50261;
        matchTolerance  0.0001;
        transform       unknown;
        myProcNo        0;
        neighbProcNo    3;
    }
    procBoundary0to4
    {
        type            processor;
        inGroups        1(processor);
        nFaces          1;
        startFace       50502;
        matchTolerance  0.0001;
        transform       unknown;
        myProcNo        0;
        neighbProcNo    4;
    }
)

// ************************************************************************* //
