/*--------------------------------*- C++ -*----------------------------------*\
| =========                 |                                                 |
| \\      /  F ield         | OpenFOAM: The Open Source CFD Toolbox           |
|  \\    /   O peration     | Version:  2206                                  |
|   \\  /    A nd           | Website:  www.openfoam.com                      |
|    \\/     M anipulation  |                                                 |
\*---------------------------------------------------------------------------*/
FoamFile
{
    version     2.0;
    format      ascii;
    arch        "LSB;label=32;scalar=64";
    class       polyBoundaryMesh;
    location    "constant/polyMesh";
    object      boundary;
}
// * * * * * * * * * * * * * * * * * * * * * * * * * * * * * * * * * * * * * //

12
(
    inlet
    {
        type            patch;
        nFaces          0;
        startFace       3501;
    }
    outlet
    {
        type            patch;
        nFaces          0;
        startFace       3501;
    }
    topWall
    {
        type            wall;
        inGroups        1(wall);
        nFaces          0;
        startFace       3501;
    }
    lowerWall
    {
        type            wall;
        inGroups        1(wall);
        nFaces          136;
        startFace       3501;
    }
    leadingEdge
    {
        type            wall;
        inGroups        1(wall);
        nFaces          0;
        startFace       3637;
    }
    trailingEdge
    {
        type            wall;
        inGroups        1(wall);
        nFaces          4;
        startFace       3637;
    }
    upperSurface
    {
        type            wall;
        inGroups        1(wall);
        nFaces          0;
        startFace       3641;
    }
    lowerSurface
    {
        type            wall;
        inGroups        1(wall);
        nFaces          42;
        startFace       3641;
    }
    frontAndBack
    {
        type            empty;
        inGroups        1(empty);
        nFaces          3652;
        startFace       3683;
    }
    procBoundary1to0
    {
        type            processor;
        inGroups        1(processor);
        nFaces          10;
        startFace       7335;
        matchTolerance  0.0001;
        transform       unknown;
        myProcNo        1;
        neighbProcNo    0;
    }
    procBoundary1to2
    {
        type            processor;
        inGroups        1(processor);
        nFaces          16;
        startFace       7345;
        matchTolerance  0.0001;
        transform       unknown;
        myProcNo        1;
        neighbProcNo    2;
    }
    procBoundary1to5
    {
        type            processor;
        inGroups        1(processor);
        nFaces          94;
        startFace       7361;
        matchTolerance  0.0001;
        transform       unknown;
        myProcNo        1;
        neighbProcNo    5;
    }
)

// ************************************************************************* //
