/*--------------------------------*- C++ -*----------------------------------*\
| =========                 |                                                 |
| \\      /  F ield         | OpenFOAM: The Open Source CFD Toolbox           |
|  \\    /   O peration     | Version:  2206                                  |
|   \\  /    A nd           | Website:  www.openfoam.com                      |
|    \\/     M anipulation  |                                                 |
\*---------------------------------------------------------------------------*/
FoamFile
{
    version     2.0;
    format      ascii;
    arch        "LSB;label=32;scalar=64";
    class       polyBoundaryMesh;
    location    "constant/polyMesh";
    object      boundary;
}
// * * * * * * * * * * * * * * * * * * * * * * * * * * * * * * * * * * * * * //

9
(
    inlet
    {
        type            patch;
        nFaces          30;
        startFace       29248;
    }
    outlet
    {
        type            patch;
        nFaces          30;
        startFace       29278;
    }
    topWall
    {
        type            wall;
        inGroups        1(wall);
        nFaces          511;
        startFace       29308;
    }
    lowerWall
    {
        type            wall;
        inGroups        1(wall);
        nFaces          511;
        startFace       29819;
    }
    leadingEdge
    {
        type            wall;
        inGroups        1(wall);
        nFaces          10;
        startFace       30330;
    }
    trailingEdge
    {
        type            wall;
        inGroups        1(wall);
        nFaces          10;
        startFace       30340;
    }
    upperSurface
    {
        type            wall;
        inGroups        1(wall);
        nFaces          41;
        startFace       30350;
    }
    lowerSurface
    {
        type            wall;
        inGroups        1(wall);
        nFaces          41;
        startFace       30391;
    }
    frontAndBack
    {
        type            empty;
        inGroups        1(empty);
        nFaces          29840;
        startFace       30432;
    }
)

// ************************************************************************* //
