/*--------------------------------*- C++ -*----------------------------------*\
| =========                 |                                                 |
| \\      /  F ield         | OpenFOAM: The Open Source CFD Toolbox           |
|  \\    /   O peration     | Version:  2206                                  |
|   \\  /    A nd           | Website:  www.openfoam.com                      |
|    \\/     M anipulation  |                                                 |
\*---------------------------------------------------------------------------*/
FoamFile
{
    version     2.0;
    format      binary;
    arch        "LSB;label=32;scalar=64";
    class       decomposedBlockData;
    object      boundary;
    data.format     ascii;
    data.class      polyBoundaryMesh;
}
// * * * * * * * * * * * * * * * * * * * * * * * * * * * * * * * * * * * * * //


// processor0

1727
(FoamFile
{
    version     2.0;
    format      ascii;
    arch        "LSB;label=32;scalar=64";
    class       polyBoundaryMesh;
    location    "constant/polyMesh";
    object      boundary;
}
8
(
    inlet
    {
        type            patch;
        nFaces          12;
        startFace       13035;
    }
    outlet
    {
        type            patch;
        nFaces          0;
        startFace       13047;
    }
    topWall
    {
        type            wall;
        inGroups        1(wall);
        nFaces          0;
        startFace       13047;
    }
    lowerWall
    {
        type            wall;
        inGroups        1(wall);
        nFaces          544;
        startFace       13047;
    }
    frontAndBack
    {
        type            empty;
        inGroups        1(empty);
        nFaces          13592;
        startFace       13591;
    }
    procBoundary0to1
    {
        type            processor;
        inGroups        1(processor);
        nFaces          12;
        startFace       27183;
        matchTolerance  0.0001;
        transform       unknown;
        myProcNo        0;
        neighbProcNo    1;
    }
    procBoundary0to4
    {
        type            processor;
        inGroups        1(processor);
        nFaces          545;
        startFace       27195;
        matchTolerance  0.0001;
        transform       unknown;
        myProcNo        0;
        neighbProcNo    4;
    }
    procBoundary0to5
    {
        type            processor;
        inGroups        1(processor);
        nFaces          1;
        startFace       27740;
        matchTolerance  0.0001;
        transform       unknown;
        myProcNo        0;
        neighbProcNo    5;
    }
))

// processor1

1814
(9
(
    inlet
    {
        type            patch;
        nFaces          0;
        startFace       13035;
    }
    outlet
    {
        type            patch;
        nFaces          0;
        startFace       13035;
    }
    topWall
    {
        type            wall;
        inGroups        1(wall);
        nFaces          0;
        startFace       13035;
    }
    lowerWall
    {
        type            wall;
        inGroups        1(wall);
        nFaces          544;
        startFace       13035;
    }
    frontAndBack
    {
        type            empty;
        inGroups        1(empty);
        nFaces          13592;
        startFace       13579;
    }
    procBoundary1to0
    {
        type            processor;
        inGroups        1(processor);
        nFaces          12;
        startFace       27171;
        matchTolerance  0.0001;
        transform       unknown;
        myProcNo        1;
        neighbProcNo    0;
    }
    procBoundary1to2
    {
        type            processor;
        inGroups        1(processor);
        nFaces          13;
        startFace       27183;
        matchTolerance  0.0001;
        transform       unknown;
        myProcNo        1;
        neighbProcNo    2;
    }
    procBoundary1to5
    {
        type            processor;
        inGroups        1(processor);
        nFaces          544;
        startFace       27196;
        matchTolerance  0.0001;
        transform       unknown;
        myProcNo        1;
        neighbProcNo    5;
    }
    procBoundary1to6
    {
        type            processor;
        inGroups        1(processor);
        nFaces          1;
        startFace       27740;
        matchTolerance  0.0001;
        transform       unknown;
        myProcNo        1;
        neighbProcNo    6;
    }
))

// processor2

1814
(9
(
    inlet
    {
        type            patch;
        nFaces          0;
        startFace       13034;
    }
    outlet
    {
        type            patch;
        nFaces          0;
        startFace       13034;
    }
    topWall
    {
        type            wall;
        inGroups        1(wall);
        nFaces          0;
        startFace       13034;
    }
    lowerWall
    {
        type            wall;
        inGroups        1(wall);
        nFaces          544;
        startFace       13034;
    }
    frontAndBack
    {
        type            empty;
        inGroups        1(empty);
        nFaces          13592;
        startFace       13578;
    }
    procBoundary2to1
    {
        type            processor;
        inGroups        1(processor);
        nFaces          13;
        startFace       27170;
        matchTolerance  0.0001;
        transform       unknown;
        myProcNo        2;
        neighbProcNo    1;
    }
    procBoundary2to3
    {
        type            processor;
        inGroups        1(processor);
        nFaces          13;
        startFace       27183;
        matchTolerance  0.0001;
        transform       unknown;
        myProcNo        2;
        neighbProcNo    3;
    }
    procBoundary2to6
    {
        type            processor;
        inGroups        1(processor);
        nFaces          545;
        startFace       27196;
        matchTolerance  0.0001;
        transform       unknown;
        myProcNo        2;
        neighbProcNo    6;
    }
    procBoundary2to7
    {
        type            processor;
        inGroups        1(processor);
        nFaces          1;
        startFace       27741;
        matchTolerance  0.0001;
        transform       unknown;
        myProcNo        2;
        neighbProcNo    7;
    }
))

// processor3

1248
(7
(
    inlet
    {
        type            patch;
        nFaces          0;
        startFace       13039;
    }
    outlet
    {
        type            patch;
        nFaces          13;
        startFace       13039;
    }
    topWall
    {
        type            wall;
        inGroups        1(wall);
        nFaces          0;
        startFace       13052;
    }
    lowerWall
    {
        type            wall;
        inGroups        1(wall);
        nFaces          543;
        startFace       13052;
    }
    frontAndBack
    {
        type            empty;
        inGroups        1(empty);
        nFaces          13596;
        startFace       13595;
    }
    procBoundary3to2
    {
        type            processor;
        inGroups        1(processor);
        nFaces          13;
        startFace       27191;
        matchTolerance  0.0001;
        transform       unknown;
        myProcNo        3;
        neighbProcNo    2;
    }
    procBoundary3to7
    {
        type            processor;
        inGroups        1(processor);
        nFaces          545;
        startFace       27204;
        matchTolerance  0.0001;
        transform       unknown;
        myProcNo        3;
        neighbProcNo    7;
    }
))

// processor4

1248
(7
(
    inlet
    {
        type            patch;
        nFaces          13;
        startFace       13037;
    }
    outlet
    {
        type            patch;
        nFaces          0;
        startFace       13050;
    }
    topWall
    {
        type            wall;
        inGroups        1(wall);
        nFaces          543;
        startFace       13050;
    }
    lowerWall
    {
        type            wall;
        inGroups        1(wall);
        nFaces          0;
        startFace       13593;
    }
    frontAndBack
    {
        type            empty;
        inGroups        1(empty);
        nFaces          13594;
        startFace       13593;
    }
    procBoundary4to0
    {
        type            processor;
        inGroups        1(processor);
        nFaces          545;
        startFace       27187;
        matchTolerance  0.0001;
        transform       unknown;
        myProcNo        4;
        neighbProcNo    0;
    }
    procBoundary4to5
    {
        type            processor;
        inGroups        1(processor);
        nFaces          13;
        startFace       27732;
        matchTolerance  0.0001;
        transform       unknown;
        myProcNo        4;
        neighbProcNo    5;
    }
))

// processor5

1814
(9
(
    inlet
    {
        type            patch;
        nFaces          0;
        startFace       13037;
    }
    outlet
    {
        type            patch;
        nFaces          0;
        startFace       13037;
    }
    topWall
    {
        type            wall;
        inGroups        1(wall);
        nFaces          544;
        startFace       13037;
    }
    lowerWall
    {
        type            wall;
        inGroups        1(wall);
        nFaces          0;
        startFace       13581;
    }
    frontAndBack
    {
        type            empty;
        inGroups        1(empty);
        nFaces          13594;
        startFace       13581;
    }
    procBoundary5to0
    {
        type            processor;
        inGroups        1(processor);
        nFaces          1;
        startFace       27175;
        matchTolerance  0.0001;
        transform       unknown;
        myProcNo        5;
        neighbProcNo    0;
    }
    procBoundary5to1
    {
        type            processor;
        inGroups        1(processor);
        nFaces          544;
        startFace       27176;
        matchTolerance  0.0001;
        transform       unknown;
        myProcNo        5;
        neighbProcNo    1;
    }
    procBoundary5to4
    {
        type            processor;
        inGroups        1(processor);
        nFaces          13;
        startFace       27720;
        matchTolerance  0.0001;
        transform       unknown;
        myProcNo        5;
        neighbProcNo    4;
    }
    procBoundary5to6
    {
        type            processor;
        inGroups        1(processor);
        nFaces          12;
        startFace       27733;
        matchTolerance  0.0001;
        transform       unknown;
        myProcNo        5;
        neighbProcNo    6;
    }
))

// processor6

1814
(9
(
    inlet
    {
        type            patch;
        nFaces          0;
        startFace       13037;
    }
    outlet
    {
        type            patch;
        nFaces          0;
        startFace       13037;
    }
    topWall
    {
        type            wall;
        inGroups        1(wall);
        nFaces          544;
        startFace       13037;
    }
    lowerWall
    {
        type            wall;
        inGroups        1(wall);
        nFaces          0;
        startFace       13581;
    }
    frontAndBack
    {
        type            empty;
        inGroups        1(empty);
        nFaces          13594;
        startFace       13581;
    }
    procBoundary6to1
    {
        type            processor;
        inGroups        1(processor);
        nFaces          1;
        startFace       27175;
        matchTolerance  0.0001;
        transform       unknown;
        myProcNo        6;
        neighbProcNo    1;
    }
    procBoundary6to2
    {
        type            processor;
        inGroups        1(processor);
        nFaces          545;
        startFace       27176;
        matchTolerance  0.0001;
        transform       unknown;
        myProcNo        6;
        neighbProcNo    2;
    }
    procBoundary6to5
    {
        type            processor;
        inGroups        1(processor);
        nFaces          12;
        startFace       27721;
        matchTolerance  0.0001;
        transform       unknown;
        myProcNo        6;
        neighbProcNo    5;
    }
    procBoundary6to7
    {
        type            processor;
        inGroups        1(processor);
        nFaces          12;
        startFace       27733;
        matchTolerance  0.0001;
        transform       unknown;
        myProcNo        6;
        neighbProcNo    7;
    }
))

// processor7

1531
(8
(
    inlet
    {
        type            patch;
        nFaces          0;
        startFace       13039;
    }
    outlet
    {
        type            patch;
        nFaces          12;
        startFace       13039;
    }
    topWall
    {
        type            wall;
        inGroups        1(wall);
        nFaces          544;
        startFace       13051;
    }
    lowerWall
    {
        type            wall;
        inGroups        1(wall);
        nFaces          0;
        startFace       13595;
    }
    frontAndBack
    {
        type            empty;
        inGroups        1(empty);
        nFaces          13596;
        startFace       13595;
    }
    procBoundary7to2
    {
        type            processor;
        inGroups        1(processor);
        nFaces          1;
        startFace       27191;
        matchTolerance  0.0001;
        transform       unknown;
        myProcNo        7;
        neighbProcNo    2;
    }
    procBoundary7to3
    {
        type            processor;
        inGroups        1(processor);
        nFaces          545;
        startFace       27192;
        matchTolerance  0.0001;
        transform       unknown;
        myProcNo        7;
        neighbProcNo    3;
    }
    procBoundary7to6
    {
        type            processor;
        inGroups        1(processor);
        nFaces          12;
        startFace       27737;
        matchTolerance  0.0001;
        transform       unknown;
        myProcNo        7;
        neighbProcNo    6;
    }
))
