/*--------------------------------*- C++ -*----------------------------------*\
| =========                 |                                                 |
| \\      /  F ield         | OpenFOAM: The Open Source CFD Toolbox           |
|  \\    /   O peration     | Version:  2206                                  |
|   \\  /    A nd           | Website:  www.openfoam.com                      |
|    \\/     M anipulation  |                                                 |
\*---------------------------------------------------------------------------*/
FoamFile
{
    version     2.0;
    format      ascii;
    arch        "LSB;label=32;scalar=64";
    class       polyBoundaryMesh;
    location    "constant/polyMesh";
    object      boundary;
}
// * * * * * * * * * * * * * * * * * * * * * * * * * * * * * * * * * * * * * //

9
(
    inlet
    {
        type            patch;
        nFaces          69;
        startFace       151916;
    }
    outlet
    {
        type            patch;
        nFaces          69;
        startFace       151985;
    }
    topWall
    {
        type            wall;
        inGroups        1(wall);
        nFaces          1149;
        startFace       152054;
    }
    lowerWall
    {
        type            wall;
        inGroups        1(wall);
        nFaces          1149;
        startFace       153203;
    }
    leadingEdge
    {
        type            wall;
        inGroups        1(wall);
        nFaces          23;
        startFace       154352;
    }
    trailingEdge
    {
        type            wall;
        inGroups        1(wall);
        nFaces          23;
        startFace       154375;
    }
    upperSurface
    {
        type            wall;
        inGroups        1(wall);
        nFaces          115;
        startFace       154398;
    }
    lowerSurface
    {
        type            wall;
        inGroups        1(wall);
        nFaces          115;
        startFace       154513;
    }
    frontAndBack
    {
        type            empty;
        inGroups        1(empty);
        nFaces          153272;
        startFace       154628;
    }
)

// ************************************************************************* //
