/*--------------------------------*- C++ -*----------------------------------*\
| =========                 |                                                 |
| \\      /  F ield         | OpenFOAM: The Open Source CFD Toolbox           |
|  \\    /   O peration     | Version:  2206                                  |
|   \\  /    A nd           | Website:  www.openfoam.com                      |
|    \\/     M anipulation  |                                                 |
\*---------------------------------------------------------------------------*/
FoamFile
{
    version     2.0;
    format      ascii;
    arch        "LSB;label=32;scalar=64";
    class       polyBoundaryMesh;
    location    "constant/polyMesh";
    object      boundary;
}
// * * * * * * * * * * * * * * * * * * * * * * * * * * * * * * * * * * * * * //

11
(
    inlet
    {
        type            patch;
        nFaces          24;
        startFace       5898;
    }
    outlet
    {
        type            patch;
        nFaces          0;
        startFace       5922;
    }
    topWall
    {
        type            wall;
        inGroups        1(wall);
        nFaces          0;
        startFace       5922;
    }
    lowerWall
    {
        type            wall;
        inGroups        1(wall);
        nFaces          127;
        startFace       5922;
    }
    leadingEdge
    {
        type            wall;
        inGroups        1(wall);
        nFaces          5;
        startFace       6049;
    }
    trailingEdge
    {
        type            wall;
        inGroups        1(wall);
        nFaces          0;
        startFace       6054;
    }
    upperSurface
    {
        type            wall;
        inGroups        1(wall);
        nFaces          0;
        startFace       6054;
    }
    lowerSurface
    {
        type            wall;
        inGroups        1(wall);
        nFaces          26;
        startFace       6054;
    }
    frontAndBack
    {
        type            empty;
        inGroups        1(empty);
        nFaces          6050;
        startFace       6080;
    }
    procBoundary0to1
    {
        type            processor;
        inGroups        1(processor);
        nFaces          21;
        startFace       12130;
        matchTolerance  0.0001;
        transform       unknown;
        myProcNo        0;
        neighbProcNo    1;
    }
    procBoundary0to4
    {
        type            processor;
        inGroups        1(processor);
        nFaces          101;
        startFace       12151;
        matchTolerance  0.0001;
        transform       unknown;
        myProcNo        0;
        neighbProcNo    4;
    }
)

// ************************************************************************* //
