/*--------------------------------*- C++ -*----------------------------------*\
| =========                 |                                                 |
| \\      /  F ield         | OpenFOAM: The Open Source CFD Toolbox           |
|  \\    /   O peration     | Version:  2206                                  |
|   \\  /    A nd           | Website:  www.openfoam.com                      |
|    \\/     M anipulation  |                                                 |
\*---------------------------------------------------------------------------*/
FoamFile
{
    version     2.0;
    format      ascii;
    arch        "LSB;label=32;scalar=64";
    class       polyBoundaryMesh;
    location    "constant/polyMesh";
    object      boundary;
}
// * * * * * * * * * * * * * * * * * * * * * * * * * * * * * * * * * * * * * //

13
(
    inlet
    {
        type            patch;
        nFaces          0;
        startFace       5971;
    }
    outlet
    {
        type            patch;
        nFaces          0;
        startFace       5971;
    }
    topWall
    {
        type            wall;
        inGroups        1(wall);
        nFaces          0;
        startFace       5971;
    }
    lowerWall
    {
        type            wall;
        inGroups        1(wall);
        nFaces          126;
        startFace       5971;
    }
    leadingEdge
    {
        type            wall;
        inGroups        1(wall);
        nFaces          0;
        startFace       6097;
    }
    trailingEdge
    {
        type            wall;
        inGroups        1(wall);
        nFaces          5;
        startFace       6097;
    }
    upperSurface
    {
        type            wall;
        inGroups        1(wall);
        nFaces          0;
        startFace       6102;
    }
    lowerSurface
    {
        type            wall;
        inGroups        1(wall);
        nFaces          22;
        startFace       6102;
    }
    frontAndBack
    {
        type            empty;
        inGroups        1(empty);
        nFaces          6124;
        startFace       6124;
    }
    procBoundary1to0
    {
        type            processor;
        inGroups        1(processor);
        nFaces          21;
        startFace       12248;
        matchTolerance  0.0001;
        transform       unknown;
        myProcNo        1;
        neighbProcNo    0;
    }
    procBoundary1to2
    {
        type            processor;
        inGroups        1(processor);
        nFaces          24;
        startFace       12269;
        matchTolerance  0.0001;
        transform       unknown;
        myProcNo        1;
        neighbProcNo    2;
    }
    procBoundary1to5
    {
        type            processor;
        inGroups        1(processor);
        nFaces          106;
        startFace       12293;
        matchTolerance  0.0001;
        transform       unknown;
        myProcNo        1;
        neighbProcNo    5;
    }
    procBoundary1to6
    {
        type            processor;
        inGroups        1(processor);
        nFaces          2;
        startFace       12399;
        matchTolerance  0.0001;
        transform       unknown;
        myProcNo        1;
        neighbProcNo    6;
    }
)

// ************************************************************************* //
