/*--------------------------------*- C++ -*----------------------------------*\
| =========                 |                                                 |
| \\      /  F ield         | OpenFOAM: The Open Source CFD Toolbox           |
|  \\    /   O peration     | Version:  2206                                  |
|   \\  /    A nd           | Website:  www.openfoam.com                      |
|    \\/     M anipulation  |                                                 |
\*---------------------------------------------------------------------------*/
FoamFile
{
    version     2.0;
    format      ascii;
    arch        "LSB;label=32;scalar=64";
    class       polyBoundaryMesh;
    location    "constant/polyMesh";
    object      boundary;
}
// * * * * * * * * * * * * * * * * * * * * * * * * * * * * * * * * * * * * * //

9
(
    inlet
    {
        type            patch;
        nFaces          30;
        startFace       28979;
    }
    outlet
    {
        type            patch;
        nFaces          30;
        startFace       29009;
    }
    topWall
    {
        type            wall;
        inGroups        1(wall);
        nFaces          510;
        startFace       29039;
    }
    lowerWall
    {
        type            wall;
        inGroups        1(wall);
        nFaces          510;
        startFace       29549;
    }
    leadingEdge
    {
        type            wall;
        inGroups        1(wall);
        nFaces          10;
        startFace       30059;
    }
    trailingEdge
    {
        type            wall;
        inGroups        1(wall);
        nFaces          10;
        startFace       30069;
    }
    upperSurface
    {
        type            wall;
        inGroups        1(wall);
        nFaces          51;
        startFace       30079;
    }
    lowerSurface
    {
        type            wall;
        inGroups        1(wall);
        nFaces          51;
        startFace       30130;
    }
    frontAndBack
    {
        type            empty;
        inGroups        1(empty);
        nFaces          29580;
        startFace       30181;
    }
)

// ************************************************************************* //
