/*--------------------------------*- C++ -*----------------------------------*\
| =========                 |                                                 |
| \\      /  F ield         | OpenFOAM: The Open Source CFD Toolbox           |
|  \\    /   O peration     | Version:  2206                                  |
|   \\  /    A nd           | Website:  www.openfoam.com                      |
|    \\/     M anipulation  |                                                 |
\*---------------------------------------------------------------------------*/
FoamFile
{
    version     2.0;
    format      ascii;
    arch        "LSB;label=32;scalar=64";
    class       polyBoundaryMesh;
    location    "constant/polyMesh";
    object      boundary;
}
// * * * * * * * * * * * * * * * * * * * * * * * * * * * * * * * * * * * * * //

9
(
    inlet
    {
        type            patch;
        nFaces          70;
        startFace       76240;
    }
    outlet
    {
        type            patch;
        nFaces          70;
        startFace       76310;
    }
    topWall
    {
        type            wall;
        inGroups        1(wall);
        nFaces          561;
        startFace       76380;
    }
    lowerWall
    {
        type            wall;
        inGroups        1(wall);
        nFaces          561;
        startFace       76941;
    }
    leadingEdge
    {
        type            wall;
        inGroups        1(wall);
        nFaces          10;
        startFace       77502;
    }
    trailingEdge
    {
        type            wall;
        inGroups        1(wall);
        nFaces          10;
        startFace       77512;
    }
    upperSurface
    {
        type            wall;
        inGroups        1(wall);
        nFaces          79;
        startFace       77522;
    }
    lowerSurface
    {
        type            wall;
        inGroups        1(wall);
        nFaces          79;
        startFace       77601;
    }
    frontAndBack
    {
        type            empty;
        inGroups        1(empty);
        nFaces          76960;
        startFace       77680;
    }
)

// ************************************************************************* //
