/*--------------------------------*- C++ -*----------------------------------*\
| =========                 |                                                 |
| \\      /  F ield         | OpenFOAM: The Open Source CFD Toolbox           |
|  \\    /   O peration     | Version:  2206                                  |
|   \\  /    A nd           | Website:  www.openfoam.com                      |
|    \\/     M anipulation  |                                                 |
\*---------------------------------------------------------------------------*/
FoamFile
{
    version     2.0;
    format      ascii;
    arch        "LSB;label=32;scalar=64";
    class       polyBoundaryMesh;
    location    "constant/polyMesh";
    object      boundary;
}
// * * * * * * * * * * * * * * * * * * * * * * * * * * * * * * * * * * * * * //

9
(
    inlet
    {
        type            patch;
        nFaces          50;
        startFace       48180;
    }
    outlet
    {
        type            patch;
        nFaces          50;
        startFace       48230;
    }
    topWall
    {
        type            wall;
        inGroups        1(wall);
        nFaces          500;
        startFace       48280;
    }
    lowerWall
    {
        type            wall;
        inGroups        1(wall);
        nFaces          500;
        startFace       48780;
    }
    leadingEdge
    {
        type            wall;
        inGroups        1(wall);
        nFaces          10;
        startFace       49280;
    }
    trailingEdge
    {
        type            wall;
        inGroups        1(wall);
        nFaces          10;
        startFace       49290;
    }
    upperSurface
    {
        type            wall;
        inGroups        1(wall);
        nFaces          60;
        startFace       49300;
    }
    lowerSurface
    {
        type            wall;
        inGroups        1(wall);
        nFaces          60;
        startFace       49360;
    }
    frontAndBack
    {
        type            empty;
        inGroups        1(empty);
        nFaces          48800;
        startFace       49420;
    }
)

// ************************************************************************* //
