/*--------------------------------*- C++ -*----------------------------------*\
| =========                 |                                                 |
| \\      /  F ield         | OpenFOAM: The Open Source CFD Toolbox           |
|  \\    /   O peration     | Version:  2206                                  |
|   \\  /    A nd           | Website:  www.openfoam.com                      |
|    \\/     M anipulation  |                                                 |
\*---------------------------------------------------------------------------*/
FoamFile
{
    version     2.0;
    format      ascii;
    arch        "LSB;label=32;scalar=64";
    class       polyBoundaryMesh;
    location    "constant/polyMesh";
    object      boundary;
}
// * * * * * * * * * * * * * * * * * * * * * * * * * * * * * * * * * * * * * //

13
(
    inlet
    {
        type            patch;
        nFaces          0;
        startFace       3492;
    }
    outlet
    {
        type            patch;
        nFaces          0;
        startFace       3492;
    }
    topWall
    {
        type            wall;
        inGroups        1(wall);
        nFaces          121;
        startFace       3492;
    }
    lowerWall
    {
        type            wall;
        inGroups        1(wall);
        nFaces          0;
        startFace       3613;
    }
    leadingEdge
    {
        type            wall;
        inGroups        1(wall);
        nFaces          0;
        startFace       3613;
    }
    trailingEdge
    {
        type            wall;
        inGroups        1(wall);
        nFaces          0;
        startFace       3613;
    }
    upperSurface
    {
        type            wall;
        inGroups        1(wall);
        nFaces          0;
        startFace       3613;
    }
    lowerSurface
    {
        type            wall;
        inGroups        1(wall);
        nFaces          0;
        startFace       3613;
    }
    frontAndBack
    {
        type            empty;
        inGroups        1(empty);
        nFaces          3628;
        startFace       3613;
    }
    procBoundary6to1
    {
        type            processor;
        inGroups        1(processor);
        nFaces          1;
        startFace       7241;
        matchTolerance  0.0001;
        transform       unknown;
        myProcNo        6;
        neighbProcNo    1;
    }
    procBoundary6to2
    {
        type            processor;
        inGroups        1(processor);
        nFaces          122;
        startFace       7242;
        matchTolerance  0.0001;
        transform       unknown;
        myProcNo        6;
        neighbProcNo    2;
    }
    procBoundary6to5
    {
        type            processor;
        inGroups        1(processor);
        nFaces          14;
        startFace       7364;
        matchTolerance  0.0001;
        transform       unknown;
        myProcNo        6;
        neighbProcNo    5;
    }
    procBoundary6to7
    {
        type            processor;
        inGroups        1(processor);
        nFaces          14;
        startFace       7378;
        matchTolerance  0.0001;
        transform       unknown;
        myProcNo        6;
        neighbProcNo    7;
    }
)

// ************************************************************************* //
