/*--------------------------------*- C++ -*----------------------------------*\
| =========                 |                                                 |
| \\      /  F ield         | OpenFOAM: The Open Source CFD Toolbox           |
|  \\    /   O peration     | Version:  v2206                                 |
|   \\  /    A nd           | Website:  www.openfoam.com                      |
|    \\/     M anipulation  |                                                 |
\*---------------------------------------------------------------------------*/
FoamFile
{
    version     2.0;
    format      ascii;
    class       dictionary;
    object      fvSchemes;
}
// * * * * * * * * * * * * * * * * * * * * * * * * * * * * * * * * * * * * * //

ddtSchemes
{
    default         steadyState;
}


gradSchemes
{
    default         cellLimited Gauss linear 0.5;;
    grad(U)         cellLimited Gauss linear 1;
   // grad(p)         Gauss linear;
}

divSchemes
{
    default none;
    div(phi,U) Gauss linearUpwindV grad(U);
    div(phi,omega) Gauss linearUpwind default;
    div(phi,k) Gauss linearUpwind default;
    div((nuEff*dev2(T(grad(U))))) Gauss linear;
}

/*
{
    default         none;
    div(phi,U)      Gauss linear;
    div((nuEff*dev2(T(grad(U))))) Gauss linear;
}*/

laplacianSchemes
{
    default         Gauss linear orthogonal;
}

interpolationSchemes
{
    default         linear;
}

snGradSchemes
{
    default         orthogonal;
}

wallDist
{
    method          meshWave;
}


// ************************************************************************* //
