/*--------------------------------*- C++ -*----------------------------------*\
| =========                 |                                                 |
| \\      /  F ield         | OpenFOAM: The Open Source CFD Toolbox           |
|  \\    /   O peration     | Version:  v2206                                 |
|   \\  /    A nd           | Website:  www.openfoam.com                      |
|    \\/     M anipulation  |                                                 |
\*---------------------------------------------------------------------------*/
FoamFile
{
    version     2.0;
    format      ascii;
    class       dictionary;
    object      fvSolution;
}
// * * * * * * * * * * * * * * * * * * * * * * * * * * * * * * * * * * * * * //

solvers
{
    p
    {
        solver          GAMG;
        preconditioner  DIC;
        tolerance       1e-06;
        relTol          0.01;
        smoother        GaussSeidel;
        directSolveCoarsest false;
        nPreSweeps      0;
        nPostSweeps     2;
        nFinestSweeps   2;
        cacheAgglomeration  on;
        agglomerator    faceAreaPair;
        nCellsCoarsestLevel 256;
        mergeLevels     2;
    }

    pFinal
    {
        $p;
        relTol          0;
    }

    U
    {
        solver          PBiCG;
        preconditioner  DILU;
        smoother        GaussSeidel;
        tolerance       1e-08;
        relTol          0;
    }
}

SIMPLE
{
    nNonOrthogonalCorrectors 0;


    residualControl
    {
        p               1e-4;
        U               1e-4;
        "(k|epsilon|omega)" 1e-4;
    }

    consistent          yes;

}

relaxationFactors
{
    equations
    {
        U               0.5;
        k               0.5;
        epsilon         0.5;
        nuTilda         0.5;
        omega           0.5;
        p               0.3;
    }
}




// ************************************************************************* //
