/*--------------------------------*- C++ -*----------------------------------*\
| =========                 |                                                 |
| \\      /  F ield         | OpenFOAM: The Open Source CFD Toolbox           |
|  \\    /   O peration     | Version:  2206                                  |
|   \\  /    A nd           | Website:  www.openfoam.com                      |
|    \\/     M anipulation  |                                                 |
\*---------------------------------------------------------------------------*/
FoamFile
{
    version     2.0;
    format      ascii;
    arch        "LSB;label=32;scalar=64";
    class       polyBoundaryMesh;
    location    "constant/polyMesh";
    object      boundary;
}
// * * * * * * * * * * * * * * * * * * * * * * * * * * * * * * * * * * * * * //

13
(
    inlet
    {
        type            patch;
        nFaces          0;
        startFace       9471;
    }
    outlet
    {
        type            patch;
        nFaces          0;
        startFace       9471;
    }
    topWall
    {
        type            wall;
        inGroups        1(wall);
        nFaces          0;
        startFace       9471;
    }
    lowerWall
    {
        type            wall;
        inGroups        1(wall);
        nFaces          138;
        startFace       9471;
    }
    leadingEdge
    {
        type            wall;
        inGroups        1(wall);
        nFaces          0;
        startFace       9609;
    }
    trailingEdge
    {
        type            wall;
        inGroups        1(wall);
        nFaces          0;
        startFace       9609;
    }
    upperSurface
    {
        type            wall;
        inGroups        1(wall);
        nFaces          0;
        startFace       9609;
    }
    lowerSurface
    {
        type            wall;
        inGroups        1(wall);
        nFaces          0;
        startFace       9609;
    }
    frontAndBack
    {
        type            empty;
        inGroups        1(empty);
        nFaces          9646;
        startFace       9609;
    }
    procBoundary2to1
    {
        type            processor;
        inGroups        1(processor);
        nFaces          36;
        startFace       19255;
        matchTolerance  0.0001;
        transform       unknown;
        myProcNo        2;
        neighbProcNo    1;
    }
    procBoundary2to3
    {
        type            processor;
        inGroups        1(processor);
        nFaces          36;
        startFace       19291;
        matchTolerance  0.0001;
        transform       unknown;
        myProcNo        2;
        neighbProcNo    3;
    }
    procBoundary2to6
    {
        type            processor;
        inGroups        1(processor);
        nFaces          139;
        startFace       19327;
        matchTolerance  0.0001;
        transform       unknown;
        myProcNo        2;
        neighbProcNo    6;
    }
    procBoundary2to7
    {
        type            processor;
        inGroups        1(processor);
        nFaces          1;
        startFace       19466;
        matchTolerance  0.0001;
        transform       unknown;
        myProcNo        2;
        neighbProcNo    7;
    }
)

// ************************************************************************* //
