/*--------------------------------*- C++ -*----------------------------------*\
| =========                 |                                                 |
| \\      /  F ield         | OpenFOAM: The Open Source CFD Toolbox           |
|  \\    /   O peration     | Version:  2206                                  |
|   \\  /    A nd           | Website:  www.openfoam.com                      |
|    \\/     M anipulation  |                                                 |
\*---------------------------------------------------------------------------*/
FoamFile
{
    version     2.0;
    format      ascii;
    arch        "LSB;label=32;scalar=64";
    class       polyBoundaryMesh;
    location    "constant/polyMesh";
    object      boundary;
}
// * * * * * * * * * * * * * * * * * * * * * * * * * * * * * * * * * * * * * //

9
(
    inlet
    {
        type            patch;
        nFaces          113;
        startFace       244529;
    }
    outlet
    {
        type            patch;
        nFaces          113;
        startFace       244642;
    }
    topWall
    {
        type            wall;
        inGroups        1(wall);
        nFaces          1125;
        startFace       244755;
    }
    lowerWall
    {
        type            wall;
        inGroups        1(wall);
        nFaces          1125;
        startFace       245880;
    }
    leadingEdge
    {
        type            wall;
        inGroups        1(wall);
        nFaces          23;
        startFace       247005;
    }
    trailingEdge
    {
        type            wall;
        inGroups        1(wall);
        nFaces          23;
        startFace       247028;
    }
    upperSurface
    {
        type            wall;
        inGroups        1(wall);
        nFaces          180;
        startFace       247051;
    }
    lowerSurface
    {
        type            wall;
        inGroups        1(wall);
        nFaces          180;
        startFace       247231;
    }
    frontAndBack
    {
        type            empty;
        inGroups        1(empty);
        nFaces          245970;
        startFace       247411;
    }
)

// ************************************************************************* //
