/*--------------------------------*- C++ -*----------------------------------*\
| =========                 |                                                 |
| \\      /  F ield         | OpenFOAM: The Open Source CFD Toolbox           |
|  \\    /   O peration     | Version:  2206                                  |
|   \\  /    A nd           | Website:  www.openfoam.com                      |
|    \\/     M anipulation  |                                                 |
\*---------------------------------------------------------------------------*/
FoamFile
{
    version     2.0;
    format      ascii;
    arch        "LSB;label=32;scalar=64";
    class       polyBoundaryMesh;
    location    "constant/polyMesh";
    object      boundary;
}
// * * * * * * * * * * * * * * * * * * * * * * * * * * * * * * * * * * * * * //

9
(
    inlet
    {
        type            patch;
        nFaces          30;
        startFace       28387;
    }
    outlet
    {
        type            patch;
        nFaces          30;
        startFace       28417;
    }
    topWall
    {
        type            wall;
        inGroups        1(wall);
        nFaces          511;
        startFace       28447;
    }
    lowerWall
    {
        type            wall;
        inGroups        1(wall);
        nFaces          511;
        startFace       28958;
    }
    leadingEdge
    {
        type            wall;
        inGroups        1(wall);
        nFaces          10;
        startFace       29469;
    }
    trailingEdge
    {
        type            wall;
        inGroups        1(wall);
        nFaces          10;
        startFace       29479;
    }
    upperSurface
    {
        type            wall;
        inGroups        1(wall);
        nFaces          82;
        startFace       29489;
    }
    lowerSurface
    {
        type            wall;
        inGroups        1(wall);
        nFaces          82;
        startFace       29571;
    }
    frontAndBack
    {
        type            empty;
        inGroups        1(empty);
        nFaces          29020;
        startFace       29653;
    }
)

// ************************************************************************* //
