/*--------------------------------*- C++ -*----------------------------------*\
| =========                 |                                                 |
| \\      /  F ield         | OpenFOAM: The Open Source CFD Toolbox           |
|  \\    /   O peration     | Version:  2206                                  |
|   \\  /    A nd           | Website:  www.openfoam.com                      |
|    \\/     M anipulation  |                                                 |
\*---------------------------------------------------------------------------*/
FoamFile
{
    version     2.0;
    format      ascii;
    arch        "LSB;label=32;scalar=64";
    class       polyBoundaryMesh;
    location    "constant/polyMesh";
    object      boundary;
}
// * * * * * * * * * * * * * * * * * * * * * * * * * * * * * * * * * * * * * //

11
(
    inlet
    {
        type            patch;
        nFaces          35;
        startFace       24546;
    }
    outlet
    {
        type            patch;
        nFaces          0;
        startFace       24581;
    }
    topWall
    {
        type            wall;
        inGroups        1(wall);
        nFaces          423;
        startFace       24581;
    }
    lowerWall
    {
        type            wall;
        inGroups        1(wall);
        nFaces          0;
        startFace       25004;
    }
    leadingEdge
    {
        type            wall;
        inGroups        1(wall);
        nFaces          11;
        startFace       25004;
    }
    trailingEdge
    {
        type            wall;
        inGroups        1(wall);
        nFaces          11;
        startFace       25015;
    }
    upperSurface
    {
        type            wall;
        inGroups        1(wall);
        nFaces          184;
        startFace       25026;
    }
    lowerSurface
    {
        type            wall;
        inGroups        1(wall);
        nFaces          0;
        startFace       25210;
    }
    frontAndBack
    {
        type            empty;
        inGroups        1(empty);
        nFaces          25016;
        startFace       25210;
    }
    procBoundary3to0
    {
        type            processor;
        inGroups        1(processor);
        nFaces          241;
        startFace       50226;
        matchTolerance  0.0001;
        transform       unknown;
        myProcNo        3;
        neighbProcNo    0;
    }
    procBoundary3to4
    {
        type            processor;
        inGroups        1(processor);
        nFaces          35;
        startFace       50467;
        matchTolerance  0.0001;
        transform       unknown;
        myProcNo        3;
        neighbProcNo    4;
    }
)

// ************************************************************************* //
