/*--------------------------------*- C++ -*----------------------------------*\
| =========                 |                                                 |
| \\      /  F ield         | OpenFOAM: The Open Source CFD Toolbox           |
|  \\    /   O peration     | Version:  2206                                  |
|   \\  /    A nd           | Website:  www.openfoam.com                      |
|    \\/     M anipulation  |                                                 |
\*---------------------------------------------------------------------------*/
FoamFile
{
    version     2.0;
    format      ascii;
    arch        "LSB;label=32;scalar=64";
    class       polyBoundaryMesh;
    location    "constant/polyMesh";
    object      boundary;
}
// * * * * * * * * * * * * * * * * * * * * * * * * * * * * * * * * * * * * * //

9
(
    inlet
    {
        type            patch;
        nFaces          50;
        startFace       48390;
    }
    outlet
    {
        type            patch;
        nFaces          50;
        startFace       48440;
    }
    topWall
    {
        type            wall;
        inGroups        1(wall);
        nFaces          500;
        startFace       48490;
    }
    lowerWall
    {
        type            wall;
        inGroups        1(wall);
        nFaces          500;
        startFace       48990;
    }
    leadingEdge
    {
        type            wall;
        inGroups        1(wall);
        nFaces          10;
        startFace       49490;
    }
    trailingEdge
    {
        type            wall;
        inGroups        1(wall);
        nFaces          10;
        startFace       49500;
    }
    upperSurface
    {
        type            wall;
        inGroups        1(wall);
        nFaces          50;
        startFace       49510;
    }
    lowerSurface
    {
        type            wall;
        inGroups        1(wall);
        nFaces          50;
        startFace       49560;
    }
    frontAndBack
    {
        type            empty;
        inGroups        1(empty);
        nFaces          49000;
        startFace       49610;
    }
)

// ************************************************************************* //
