/*--------------------------------*- C++ -*----------------------------------*\
| =========                 |                                                 |
| \\      /  F ield         | OpenFOAM: The Open Source CFD Toolbox           |
|  \\    /   O peration     | Version:  2206                                  |
|   \\  /    A nd           | Website:  www.openfoam.com                      |
|    \\/     M anipulation  |                                                 |
\*---------------------------------------------------------------------------*/
FoamFile
{
    version     2.0;
    format      ascii;
    arch        "LSB;label=32;scalar=64";
    class       polyBoundaryMesh;
    location    "constant/polyMesh";
    object      boundary;
}
// * * * * * * * * * * * * * * * * * * * * * * * * * * * * * * * * * * * * * //

13
(
    inlet
    {
        type            patch;
        nFaces          0;
        startFace       34683;
    }
    outlet
    {
        type            patch;
        nFaces          0;
        startFace       34683;
    }
    topWall
    {
        type            wall;
        inGroups        1(wall);
        nFaces          0;
        startFace       34683;
    }
    lowerWall
    {
        type            wall;
        inGroups        1(wall);
        nFaces          132;
        startFace       34683;
    }
    leadingEdge
    {
        type            wall;
        inGroups        1(wall);
        nFaces          12;
        startFace       34815;
    }
    trailingEdge
    {
        type            wall;
        inGroups        1(wall);
        nFaces          0;
        startFace       34827;
    }
    upperSurface
    {
        type            wall;
        inGroups        1(wall);
        nFaces          0;
        startFace       34827;
    }
    lowerSurface
    {
        type            wall;
        inGroups        1(wall);
        nFaces          9;
        startFace       34827;
    }
    frontAndBack
    {
        type            empty;
        inGroups        1(empty);
        nFaces          34964;
        startFace       34836;
    }
    procBoundary6to3
    {
        type            processor;
        inGroups        1(processor);
        nFaces          124;
        startFace       69800;
        matchTolerance  0.0001;
        transform       unknown;
        myProcNo        6;
        neighbProcNo    3;
    }
    procBoundary6to4
    {
        type            processor;
        inGroups        1(processor);
        nFaces          46;
        startFace       69924;
        matchTolerance  0.0001;
        transform       unknown;
        myProcNo        6;
        neighbProcNo    4;
    }
    procBoundary6to5
    {
        type            processor;
        inGroups        1(processor);
        nFaces          62;
        startFace       69970;
        matchTolerance  0.0001;
        transform       unknown;
        myProcNo        6;
        neighbProcNo    5;
    }
    procBoundary6to7
    {
        type            processor;
        inGroups        1(processor);
        nFaces          177;
        startFace       70032;
        matchTolerance  0.0001;
        transform       unknown;
        myProcNo        6;
        neighbProcNo    7;
    }
)

// ************************************************************************* //
