/*--------------------------------*- C++ -*----------------------------------*\
| =========                 |                                                 |
| \\      /  F ield         | OpenFOAM: The Open Source CFD Toolbox           |
|  \\    /   O peration     | Version:  2206                                  |
|   \\  /    A nd           | Website:  www.openfoam.com                      |
|    \\/     M anipulation  |                                                 |
\*---------------------------------------------------------------------------*/
FoamFile
{
    version     2.0;
    format      ascii;
    arch        "LSB;label=32;scalar=64";
    class       polyBoundaryMesh;
    location    "constant/polyMesh";
    object      boundary;
}
// * * * * * * * * * * * * * * * * * * * * * * * * * * * * * * * * * * * * * //

9
(
    inlet
    {
        type            patch;
        nFaces          70;
        startFace       76584;
    }
    outlet
    {
        type            patch;
        nFaces          70;
        startFace       76654;
    }
    topWall
    {
        type            wall;
        inGroups        1(wall);
        nFaces          560;
        startFace       76724;
    }
    lowerWall
    {
        type            wall;
        inGroups        1(wall);
        nFaces          560;
        startFace       77284;
    }
    leadingEdge
    {
        type            wall;
        inGroups        1(wall);
        nFaces          10;
        startFace       77844;
    }
    trailingEdge
    {
        type            wall;
        inGroups        1(wall);
        nFaces          10;
        startFace       77854;
    }
    upperSurface
    {
        type            wall;
        inGroups        1(wall);
        nFaces          56;
        startFace       77864;
    }
    lowerSurface
    {
        type            wall;
        inGroups        1(wall);
        nFaces          56;
        startFace       77920;
    }
    frontAndBack
    {
        type            empty;
        inGroups        1(empty);
        nFaces          77280;
        startFace       77976;
    }
)

// ************************************************************************* //
