/*--------------------------------*- C++ -*----------------------------------*\
| =========                 |                                                 |
| \\      /  F ield         | OpenFOAM: The Open Source CFD Toolbox           |
|  \\    /   O peration     | Version:  2206                                  |
|   \\  /    A nd           | Website:  www.openfoam.com                      |
|    \\/     M anipulation  |                                                 |
\*---------------------------------------------------------------------------*/
FoamFile
{
    version     2.0;
    format      ascii;
    arch        "LSB;label=32;scalar=64";
    class       polyBoundaryMesh;
    location    "constant/polyMesh";
    object      boundary;
}
// * * * * * * * * * * * * * * * * * * * * * * * * * * * * * * * * * * * * * //

9
(
    inlet
    {
        type            patch;
        nFaces          70;
        startFace       76954;
    }
    outlet
    {
        type            patch;
        nFaces          70;
        startFace       77024;
    }
    topWall
    {
        type            wall;
        inGroups        1(wall);
        nFaces          561;
        startFace       77094;
    }
    lowerWall
    {
        type            wall;
        inGroups        1(wall);
        nFaces          561;
        startFace       77655;
    }
    leadingEdge
    {
        type            wall;
        inGroups        1(wall);
        nFaces          10;
        startFace       78216;
    }
    trailingEdge
    {
        type            wall;
        inGroups        1(wall);
        nFaces          10;
        startFace       78226;
    }
    upperSurface
    {
        type            wall;
        inGroups        1(wall);
        nFaces          45;
        startFace       78236;
    }
    lowerSurface
    {
        type            wall;
        inGroups        1(wall);
        nFaces          45;
        startFace       78281;
    }
    frontAndBack
    {
        type            empty;
        inGroups        1(empty);
        nFaces          77640;
        startFace       78326;
    }
)

// ************************************************************************* //
