/*--------------------------------*- C++ -*----------------------------------*\
| =========                 |                                                 |
| \\      /  F ield         | OpenFOAM: The Open Source CFD Toolbox           |
|  \\    /   O peration     | Version:  2206                                  |
|   \\  /    A nd           | Website:  www.openfoam.com                      |
|    \\/     M anipulation  |                                                 |
\*---------------------------------------------------------------------------*/
FoamFile
{
    version     2.0;
    format      ascii;
    arch        "LSB;label=32;scalar=64";
    class       polyBoundaryMesh;
    location    "constant/polyMesh";
    object      boundary;
}
// * * * * * * * * * * * * * * * * * * * * * * * * * * * * * * * * * * * * * //

11
(
    inlet
    {
        type            patch;
        nFaces          14;
        startFace       3528;
    }
    outlet
    {
        type            patch;
        nFaces          0;
        startFace       3542;
    }
    topWall
    {
        type            wall;
        inGroups        1(wall);
        nFaces          0;
        startFace       3542;
    }
    lowerWall
    {
        type            wall;
        inGroups        1(wall);
        nFaces          133;
        startFace       3542;
    }
    leadingEdge
    {
        type            wall;
        inGroups        1(wall);
        nFaces          5;
        startFace       3675;
    }
    trailingEdge
    {
        type            wall;
        inGroups        1(wall);
        nFaces          0;
        startFace       3680;
    }
    upperSurface
    {
        type            wall;
        inGroups        1(wall);
        nFaces          0;
        startFace       3680;
    }
    lowerSurface
    {
        type            wall;
        inGroups        1(wall);
        nFaces          31;
        startFace       3680;
    }
    frontAndBack
    {
        type            empty;
        inGroups        1(empty);
        nFaces          3676;
        startFace       3711;
    }
    procBoundary0to1
    {
        type            processor;
        inGroups        1(processor);
        nFaces          10;
        startFace       7387;
        matchTolerance  0.0001;
        transform       unknown;
        myProcNo        0;
        neighbProcNo    1;
    }
    procBoundary0to4
    {
        type            processor;
        inGroups        1(processor);
        nFaces          103;
        startFace       7397;
        matchTolerance  0.0001;
        transform       unknown;
        myProcNo        0;
        neighbProcNo    4;
    }
)

// ************************************************************************* //
