/*--------------------------------*- C++ -*----------------------------------*\
| =========                 |                                                 |
| \\      /  F ield         | OpenFOAM: The Open Source CFD Toolbox           |
|  \\    /   O peration     | Version:  2206                                  |
|   \\  /    A nd           | Website:  www.openfoam.com                      |
|    \\/     M anipulation  |                                                 |
\*---------------------------------------------------------------------------*/
FoamFile
{
    version     2.0;
    format      ascii;
    arch        "LSB;label=32;scalar=64";
    class       polyBoundaryMesh;
    location    "constant/polyMesh";
    object      boundary;
}
// * * * * * * * * * * * * * * * * * * * * * * * * * * * * * * * * * * * * * //

12
(
    inlet
    {
        type            patch;
        nFaces          0;
        startFace       9469;
    }
    outlet
    {
        type            patch;
        nFaces          0;
        startFace       9469;
    }
    topWall
    {
        type            wall;
        inGroups        1(wall);
        nFaces          143;
        startFace       9469;
    }
    lowerWall
    {
        type            wall;
        inGroups        1(wall);
        nFaces          0;
        startFace       9612;
    }
    leadingEdge
    {
        type            wall;
        inGroups        1(wall);
        nFaces          0;
        startFace       9612;
    }
    trailingEdge
    {
        type            wall;
        inGroups        1(wall);
        nFaces          6;
        startFace       9612;
    }
    upperSurface
    {
        type            wall;
        inGroups        1(wall);
        nFaces          38;
        startFace       9618;
    }
    lowerSurface
    {
        type            wall;
        inGroups        1(wall);
        nFaces          0;
        startFace       9656;
    }
    frontAndBack
    {
        type            empty;
        inGroups        1(empty);
        nFaces          9648;
        startFace       9656;
    }
    procBoundary5to1
    {
        type            processor;
        inGroups        1(processor);
        nFaces          106;
        startFace       19304;
        matchTolerance  0.0001;
        transform       unknown;
        myProcNo        5;
        neighbProcNo    1;
    }
    procBoundary5to4
    {
        type            processor;
        inGroups        1(processor);
        nFaces          30;
        startFace       19410;
        matchTolerance  0.0001;
        transform       unknown;
        myProcNo        5;
        neighbProcNo    4;
    }
    procBoundary5to6
    {
        type            processor;
        inGroups        1(processor);
        nFaces          35;
        startFace       19440;
        matchTolerance  0.0001;
        transform       unknown;
        myProcNo        5;
        neighbProcNo    6;
    }
)

// ************************************************************************* //
