/*--------------------------------*- C++ -*----------------------------------*\
| =========                 |                                                 |
| \\      /  F ield         | OpenFOAM: The Open Source CFD Toolbox           |
|  \\    /   O peration     | Version:  2206                                  |
|   \\  /    A nd           | Website:  www.openfoam.com                      |
|    \\/     M anipulation  |                                                 |
\*---------------------------------------------------------------------------*/
FoamFile
{
    version     2.0;
    format      ascii;
    arch        "LSB;label=32;scalar=64";
    class       polyBoundaryMesh;
    location    "constant/polyMesh";
    object      boundary;
}
// * * * * * * * * * * * * * * * * * * * * * * * * * * * * * * * * * * * * * //

9
(
    inlet
    {
        type            patch;
        nFaces          50;
        startFace       47970;
    }
    outlet
    {
        type            patch;
        nFaces          50;
        startFace       48020;
    }
    topWall
    {
        type            wall;
        inGroups        1(wall);
        nFaces          500;
        startFace       48070;
    }
    lowerWall
    {
        type            wall;
        inGroups        1(wall);
        nFaces          500;
        startFace       48570;
    }
    leadingEdge
    {
        type            wall;
        inGroups        1(wall);
        nFaces          10;
        startFace       49070;
    }
    trailingEdge
    {
        type            wall;
        inGroups        1(wall);
        nFaces          10;
        startFace       49080;
    }
    upperSurface
    {
        type            wall;
        inGroups        1(wall);
        nFaces          70;
        startFace       49090;
    }
    lowerSurface
    {
        type            wall;
        inGroups        1(wall);
        nFaces          70;
        startFace       49160;
    }
    frontAndBack
    {
        type            empty;
        inGroups        1(empty);
        nFaces          48600;
        startFace       49230;
    }
)

// ************************************************************************* //
