/*--------------------------------*- C++ -*----------------------------------*\
| =========                 |                                                 |
| \\      /  F ield         | OpenFOAM: The Open Source CFD Toolbox           |
|  \\    /   O peration     | Version:  2206                                  |
|   \\  /    A nd           | Website:  www.openfoam.com                      |
|    \\/     M anipulation  |                                                 |
\*---------------------------------------------------------------------------*/
FoamFile
{
    version     2.0;
    format      ascii;
    arch        "LSB;label=32;scalar=64";
    class       polyBoundaryMesh;
    location    "constant/polyMesh";
    object      boundary;
}
// * * * * * * * * * * * * * * * * * * * * * * * * * * * * * * * * * * * * * //

13
(
    inlet
    {
        type            patch;
        nFaces          0;
        startFace       24627;
    }
    outlet
    {
        type            patch;
        nFaces          0;
        startFace       24627;
    }
    topWall
    {
        type            wall;
        inGroups        1(wall);
        nFaces          0;
        startFace       24627;
    }
    lowerWall
    {
        type            wall;
        inGroups        1(wall);
        nFaces          252;
        startFace       24627;
    }
    leadingEdge
    {
        type            wall;
        inGroups        1(wall);
        nFaces          5;
        startFace       24879;
    }
    trailingEdge
    {
        type            wall;
        inGroups        1(wall);
        nFaces          5;
        startFace       24884;
    }
    upperSurface
    {
        type            wall;
        inGroups        1(wall);
        nFaces          0;
        startFace       24889;
    }
    lowerSurface
    {
        type            wall;
        inGroups        1(wall);
        nFaces          25;
        startFace       24889;
    }
    frontAndBack
    {
        type            empty;
        inGroups        1(empty);
        nFaces          24936;
        startFace       24914;
    }
    procBoundary1to0
    {
        type            processor;
        inGroups        1(processor);
        nFaces          51;
        startFace       49850;
        matchTolerance  0.0001;
        transform       unknown;
        myProcNo        1;
        neighbProcNo    0;
    }
    procBoundary1to2
    {
        type            processor;
        inGroups        1(processor);
        nFaces          50;
        startFace       49901;
        matchTolerance  0.0001;
        transform       unknown;
        myProcNo        1;
        neighbProcNo    2;
    }
    procBoundary1to5
    {
        type            processor;
        inGroups        1(processor);
        nFaces          228;
        startFace       49951;
        matchTolerance  0.0001;
        transform       unknown;
        myProcNo        1;
        neighbProcNo    5;
    }
    procBoundary1to6
    {
        type            processor;
        inGroups        1(processor);
        nFaces          2;
        startFace       50179;
        matchTolerance  0.0001;
        transform       unknown;
        myProcNo        1;
        neighbProcNo    6;
    }
)

// ************************************************************************* //
