/*--------------------------------*- C++ -*----------------------------------*\
| =========                 |                                                 |
| \\      /  F ield         | OpenFOAM: The Open Source CFD Toolbox           |
|  \\    /   O peration     | Version:  2206                                  |
|   \\  /    A nd           | Website:  www.openfoam.com                      |
|    \\/     M anipulation  |                                                 |
\*---------------------------------------------------------------------------*/
FoamFile
{
    version     2.0;
    format      ascii;
    arch        "LSB;label=32;scalar=64";
    class       polyBoundaryMesh;
    location    "constant/polyMesh";
    object      boundary;
}
// * * * * * * * * * * * * * * * * * * * * * * * * * * * * * * * * * * * * * //

9
(
    inlet
    {
        type            patch;
        nFaces          30;
        startFace       29458;
    }
    outlet
    {
        type            patch;
        nFaces          30;
        startFace       29488;
    }
    topWall
    {
        type            wall;
        inGroups        1(wall);
        nFaces          511;
        startFace       29518;
    }
    lowerWall
    {
        type            wall;
        inGroups        1(wall);
        nFaces          511;
        startFace       30029;
    }
    leadingEdge
    {
        type            wall;
        inGroups        1(wall);
        nFaces          10;
        startFace       30540;
    }
    trailingEdge
    {
        type            wall;
        inGroups        1(wall);
        nFaces          10;
        startFace       30550;
    }
    upperSurface
    {
        type            wall;
        inGroups        1(wall);
        nFaces          31;
        startFace       30560;
    }
    lowerSurface
    {
        type            wall;
        inGroups        1(wall);
        nFaces          31;
        startFace       30591;
    }
    frontAndBack
    {
        type            empty;
        inGroups        1(empty);
        nFaces          30040;
        startFace       30622;
    }
)

// ************************************************************************* //
