/*--------------------------------*- C++ -*----------------------------------*\
| =========                 |                                                 |
| \\      /  F ield         | OpenFOAM: The Open Source CFD Toolbox           |
|  \\    /   O peration     | Version:  2206                                  |
|   \\  /    A nd           | Website:  www.openfoam.com                      |
|    \\/     M anipulation  |                                                 |
\*---------------------------------------------------------------------------*/
FoamFile
{
    version     2.0;
    format      ascii;
    arch        "LSB;label=32;scalar=64";
    class       polyBoundaryMesh;
    location    "constant/polyMesh";
    object      boundary;
}
// * * * * * * * * * * * * * * * * * * * * * * * * * * * * * * * * * * * * * //

11
(
    inlet
    {
        type            patch;
        nFaces          175;
        startFace       34610;
    }
    outlet
    {
        type            patch;
        nFaces          0;
        startFace       34785;
    }
    topWall
    {
        type            wall;
        inGroups        1(wall);
        nFaces          0;
        startFace       34785;
    }
    lowerWall
    {
        type            wall;
        inGroups        1(wall);
        nFaces          108;
        startFace       34785;
    }
    leadingEdge
    {
        type            wall;
        inGroups        1(wall);
        nFaces          0;
        startFace       34893;
    }
    trailingEdge
    {
        type            wall;
        inGroups        1(wall);
        nFaces          0;
        startFace       34893;
    }
    upperSurface
    {
        type            wall;
        inGroups        1(wall);
        nFaces          0;
        startFace       34893;
    }
    lowerSurface
    {
        type            wall;
        inGroups        1(wall);
        nFaces          0;
        startFace       34893;
    }
    frontAndBack
    {
        type            empty;
        inGroups        1(empty);
        nFaces          34924;
        startFace       34893;
    }
    procBoundary7to5
    {
        type            processor;
        inGroups        1(processor);
        nFaces          168;
        startFace       69817;
        matchTolerance  0.0001;
        transform       unknown;
        myProcNo        7;
        neighbProcNo    5;
    }
    procBoundary7to6
    {
        type            processor;
        inGroups        1(processor);
        nFaces          177;
        startFace       69985;
        matchTolerance  0.0001;
        transform       unknown;
        myProcNo        7;
        neighbProcNo    6;
    }
)

// ************************************************************************* //
