/*--------------------------------*- C++ -*----------------------------------*\
| =========                 |                                                 |
| \\      /  F ield         | OpenFOAM: The Open Source CFD Toolbox           |
|  \\    /   O peration     | Version:  2206                                  |
|   \\  /    A nd           | Website:  www.openfoam.com                      |
|    \\/     M anipulation  |                                                 |
\*---------------------------------------------------------------------------*/
FoamFile
{
    version     2.0;
    format      ascii;
    arch        "LSB;label=32;scalar=64";
    class       volScalarField;
    location    "0";
    object      omega;
}
// * * * * * * * * * * * * * * * * * * * * * * * * * * * * * * * * * * * * * //

dimensions      [0 1 -1 0 0 0 0];

internalField   uniform 16.836;

boundaryField
{
    inlet
    {
        type            turbulentMixingLengthFrequencyInlet;
        mixingLength    0.0021; //0.07 x Hydraulic Diameter
        value           $internalField;
    }
    outlet
    {
        type            zeroGradient;
    }
    topWall
    {
        type            omegaWallFunction;
        value           $internalField;
    }
    lowerWall
    {
        type            omegaWallFunction;
        value           $internalField;
    }
    upperSurface
    {
        type            omegaWallFunction;
        value           $internalField;
    }
    lowerSurface
    {
        type            omegaWallFunction;
        value           $internalField;
    }
    leadingEdge
    {
        type            omegaWallFunction;
        value           $internalField;
    }
    trailingEdge
    {
        type            omegaWallFunction;
        value           $internalField;
    }
    frontAndBack
    {
        type            empty;
    }
}


// ************************************************************************* //
