/*--------------------------------*- C++ -*----------------------------------*\
| =========                 |                                                 |
| \\      /  F ield         | OpenFOAM: The Open Source CFD Toolbox           |
|  \\    /   O peration     | Version:  2206                                  |
|   \\  /    A nd           | Website:  www.openfoam.com                      |
|    \\/     M anipulation  |                                                 |
\*---------------------------------------------------------------------------*/
FoamFile
{
    version     2.0;
    format      ascii;
    arch        "LSB;label=32;scalar=64";
    class       polyBoundaryMesh;
    location    "constant/polyMesh";
    object      boundary;
}
// * * * * * * * * * * * * * * * * * * * * * * * * * * * * * * * * * * * * * //

12
(
    inlet
    {
        type            patch;
        nFaces          0;
        startFace       9467;
    }
    outlet
    {
        type            patch;
        nFaces          0;
        startFace       9467;
    }
    topWall
    {
        type            wall;
        inGroups        1(wall);
        nFaces          0;
        startFace       9467;
    }
    lowerWall
    {
        type            wall;
        inGroups        1(wall);
        nFaces          143;
        startFace       9467;
    }
    leadingEdge
    {
        type            wall;
        inGroups        1(wall);
        nFaces          0;
        startFace       9610;
    }
    trailingEdge
    {
        type            wall;
        inGroups        1(wall);
        nFaces          4;
        startFace       9610;
    }
    upperSurface
    {
        type            wall;
        inGroups        1(wall);
        nFaces          0;
        startFace       9614;
    }
    lowerSurface
    {
        type            wall;
        inGroups        1(wall);
        nFaces          38;
        startFace       9614;
    }
    frontAndBack
    {
        type            empty;
        inGroups        1(empty);
        nFaces          9646;
        startFace       9652;
    }
    procBoundary1to0
    {
        type            processor;
        inGroups        1(processor);
        nFaces          31;
        startFace       19298;
        matchTolerance  0.0001;
        transform       unknown;
        myProcNo        1;
        neighbProcNo    0;
    }
    procBoundary1to2
    {
        type            processor;
        inGroups        1(processor);
        nFaces          36;
        startFace       19329;
        matchTolerance  0.0001;
        transform       unknown;
        myProcNo        1;
        neighbProcNo    2;
    }
    procBoundary1to5
    {
        type            processor;
        inGroups        1(processor);
        nFaces          106;
        startFace       19365;
        matchTolerance  0.0001;
        transform       unknown;
        myProcNo        1;
        neighbProcNo    5;
    }
)

// ************************************************************************* //
