/*--------------------------------*- C++ -*----------------------------------*\
| =========                 |                                                 |
| \\      /  F ield         | OpenFOAM: The Open Source CFD Toolbox           |
|  \\    /   O peration     | Version:  2206                                  |
|   \\  /    A nd           | Website:  www.openfoam.com                      |
|    \\/     M anipulation  |                                                 |
\*---------------------------------------------------------------------------*/
FoamFile
{
    version     2.0;
    format      ascii;
    arch        "LSB;label=32;scalar=64";
    class       polyBoundaryMesh;
    location    "constant/polyMesh";
    object      boundary;
}
// * * * * * * * * * * * * * * * * * * * * * * * * * * * * * * * * * * * * * //

12
(
    inlet
    {
        type            patch;
        nFaces          0;
        startFace       34242;
    }
    outlet
    {
        type            patch;
        nFaces          0;
        startFace       34242;
    }
    topWall
    {
        type            wall;
        inGroups        1(wall);
        nFaces          0;
        startFace       34242;
    }
    lowerWall
    {
        type            wall;
        inGroups        1(wall);
        nFaces          128;
        startFace       34242;
    }
    leadingEdge
    {
        type            wall;
        inGroups        1(wall);
        nFaces          0;
        startFace       34370;
    }
    trailingEdge
    {
        type            wall;
        inGroups        1(wall);
        nFaces          12;
        startFace       34370;
    }
    upperSurface
    {
        type            wall;
        inGroups        1(wall);
        nFaces          0;
        startFace       34382;
    }
    lowerSurface
    {
        type            wall;
        inGroups        1(wall);
        nFaces          82;
        startFace       34382;
    }
    frontAndBack
    {
        type            empty;
        inGroups        1(empty);
        nFaces          34524;
        startFace       34464;
    }
    procBoundary3to0
    {
        type            processor;
        inGroups        1(processor);
        nFaces          77;
        startFace       68988;
        matchTolerance  0.0001;
        transform       unknown;
        myProcNo        3;
        neighbProcNo    0;
    }
    procBoundary3to2
    {
        type            processor;
        inGroups        1(processor);
        nFaces          141;
        startFace       69065;
        matchTolerance  0.0001;
        transform       unknown;
        myProcNo        3;
        neighbProcNo    2;
    }
    procBoundary3to6
    {
        type            processor;
        inGroups        1(processor);
        nFaces          124;
        startFace       69206;
        matchTolerance  0.0001;
        transform       unknown;
        myProcNo        3;
        neighbProcNo    6;
    }
)

// ************************************************************************* //
